data/ENWL/enwl_kron_reduced/network_5/Feeder_8/LineCode.txt
! Subset of available target linecodes, which are closest to the original ones in terms of positive sequence impedance
! ---------------------------------------------------------------------------------------------------------------------------------------------------------------------------------------------------
! original name: BS 5467 1997 table 10 16 (50 Hz)
New LineCode.LC1 nphases=3 Units=km
~ Rmatrix=(1.5112190183206278 0.3516463191860947 0.35924119542631033 | 0.3516463191860947 1.4959834903633085 0.3516347677246592 | 0.35924119542631033 0.3516347677246592 1.5111953727391252)
~ Xmatrix=(0.48261336669352367 0.4106734223692922 0.3786293578031279 | 0.4106734223692922 0.4985555265646619 0.4106561462112567 | 0.3786293578031279 0.4106561462112567 0.48258034857901405)
~ Cmatrix=(0.0 0.0 0.0 | 0.0 0.0 0.0 | 0.0 0.0 0.0)

! original name: BS 5467 1997 table 10 35 (50 Hz)
New LineCode.LC3 nphases=3 Units=km
~ Rmatrix=(0.8116586312898465 0.2804654788914415 0.2865887166768853 | 0.2804654788914415 0.798761925106297 0.28052418392391587 | 0.2865887166768853 0.28052418392391587 0.8117788036717444)
~ Xmatrix=(0.2624332146798262 0.20719203457973917 0.16864022049264266 | 0.20719203457973917 0.29080169972868114 0.2072410312795302 | 0.16864022049264266 0.2072410312795302 0.26252820689216805)
~ Cmatrix=(0.0 0.0 0.0 | 0.0 0.0 0.0 | 0.0 0.0 0.0)

! original name: BS 5467 1997 table 10 70 (50 Hz)
New LineCode.LC4 nphases=3 Units=km
~ Rmatrix=(0.44953913376315724 0.17616199136098187 0.1785122816803393 | 0.17616199136098187 0.4429873630446448 0.17619263543297925 | 0.1785122816803393 0.17619263543297925 0.44960242548376383)
~ Xmatrix=(0.1644338736389795 0.11425582422645958 0.0730123648858017 | 0.11425582422645958 0.19845465242237786 0.11427426646422706 | 0.0730123648858017 0.11427426646422706 0.16448084404397684)
~ Cmatrix=(0.0 0.0 0.0 | 0.0 0.0 0.0 | 0.0 0.0 0.0)

! original name: BS 6480 1988 table 17 Cu 16 (50 Hz)
New LineCode.LC6 nphases=3 Units=km
~ Rmatrix=(1.7933236711472256 0.6363723759193842 0.6399235094508076 | 0.6363723759193842 1.784886510251047 0.6363722249590626 | 0.6399235094508076 0.6363722249590626 1.7933243477547518)
~ Xmatrix=(0.31879625459756067 0.2514812139051382 0.20435482237859048 | 0.2514812139051382 0.35293536029633243 0.2514817763839441 | 0.20435482237859048 0.2514817763839441 0.3188003901594535)
~ Cmatrix=(0.0 0.0 0.0 | 0.0 0.0 0.0 | 0.0 0.0 0.0)

! original name: Waveform 4-core 300 IEC 60287 (50 Hz)
New LineCode.LC8 nphases=3 Units=km
~ Rmatrix=(0.16985456261876036 0.06410019258565515 0.06319856261876038 | 0.06410019258565515 0.17321094309067284 0.06410019258565515 | 0.06319856261876038 0.06410019258565515 0.16985456261876036)
~ Xmatrix=(0.09071426854225964 0.04262044882571686 0.008149268542259634 | 0.04262044882571686 0.11502590419087236 0.04262044882571686 | 0.008149268542259634 0.04262044882571686 0.09071426854225964)
~ Cmatrix=(0.0 0.0 0.0 | 0.0 0.0 0.0 | 0.0 0.0 0.0)
! ---------------------------------------------------------------------------------------------------------------------------------------------------------------------------------------------------